/*--------------------------------*- C++ -*----------------------------------*\
| =========                 |                                                 |
| \\      /  F ield         | OpenFOAM: The Open Source CFD Toolbox           |
|  \\    /   O peration     | Version:  v2012                                 |
|   \\  /    A nd           | Website:  www.openfoam.com                      |
|    \\/     M anipulation  |                                                 |
\*---------------------------------------------------------------------------*/
FoamFile
{
    version     2.0;
    format      ascii;
    class       dictionary;
    object      blockMeshDict;
}
// * * * * * * * * * * * * * * * * * * * * * * * * * * * * * * * * * * * * * //
/*
// Paramètres
    L 1;               // Largeur de la plaque
    H 0.3;                // Distance injection/plaque
    Hi 0.01;                // Longueur d'injection
    D 0.01;			           // Diametre de l'injection
    tan_theta 0;             // Angle d'injection

    L1 #calc "$D / 2";
    L2 #calc "$L / 2";
    L3 #calc "- $D / 2";
    L4 #calc "- $L / 2";
    dH1 #calc "$L1 * $tan_theta";
    dH2 #calc "$L2 * $tan_theta";
    H1 #calc "-$H + $dH1";
    H2 #calc "-$H + $dH2";
    H3 #calc "-$H - $dH1";
    H4 #calc "-$H - $dH2";


scale   1;

vertices
(
  ($L3 0 0)         // 0
  ($L1 0 0)         // 1
  ($L1 $Hi 0)      // 2
  ($L3 $Hi 0)      // 3
  ($L3 0 0.1)         // 4
  ($L1 0 0.1)         // 5
  ($L1 $Hi 0.1)      // 6
  ($L3 $Hi 0.1)      // 7
  ($L4 $H4 0)             // 8
  ($L3 $H3 0)       // 9
  ($L4 0 0)            // 10
  ($L4 $H4 0.1)             // 11
  ($L3 $H3 0.1)       // 12
  ($L4 0 0.1)            // 13
  ($L1 $H1 0)       // 14
  ($L2 $H2 0)       // 15
  ($L2 0 0)         // 16
  ($L1 $H1 0.1)           // 17
  ($L2 $H2 0.1)         // 18
  ($L2 0 0.1)           // 19
);

blocks
(
    // Injection
    hex (0 1 2 3 4 5 6 7) (10 10 1) simpleGrading (1 1 1)

    // Block gauche
    hex (8 9 0 10 11 12 4 13) (48 300 1) simpleGrading (0.015 1 1)

    // Block central
    hex (9 14 1 0 12 17 5 4) (10 300 1) simpleGrading (1 1 1)

    // Block Droit
    hex (14 15 16 1 17 18 19 5) (48 300 1) simpleGrading (66 1 1)
);


edges
(
);

boundary
(
    up
    {
        type wall;
        faces
        (
            (3 7 6 2)
        );
    }
    bottom
    {
        type patch;
        faces
        (
            (8 11 12 9)
            (9 12 17 14)
            (14 17 18 15)
        );
    }
    right
    {
        type patch;
        faces
        (
            (16 19 18 15)
        );
    }
    left
    {
        type patch;
        faces
        (
            (10 13 11 8)
        );
    }
    fixedWalls
    {
        type wall;
        faces
        (
            (3 7 4 0)
            (0 4 13 10)
            (2 6 5 1)
            (1 5 19 16)
        );
    }
    frontAndBack
    {
        type empty;
        faces
        (
          // Front
            (0 1 2 3)
            (8 9 0 10)
            (9 14 1 0)
            (14 15 16 1)
          // Back
            (4 5 6 7)
            (11 12 4 13)
            (12 17 5 4)
            (17 18 19 5)
        );
    }
);
*/
// Paramètres
    L 1;               // Largeur de la plaque
    H 0.3;                // Distance injection/plaque
    Hi 0.01;                // Longueur d'injection
    D 0.01;			           // Diametre de l'injection
    tan_theta 0;             // Angle d'injection
	dx 0.001;             // Taille d'une maille

    Ltot #eval{ $H + $Hi };
    Lmg #eval{ ($L / 2) - ($D / 2) };
    Lmd #eval{ ($L / 2) + ($D / 2) };
    Hmg #eval{ $Lmg * $tan_theta };
    Hmd #eval{ $Lmd * $tan_theta };
    Hnd #eval{ $L * $tan_theta };
	Nx #eval{ $H / $dx };
	Ny #eval{ $H / $dx };

scale   1;

vertices
(
  ($Lmg $H 0)         // 0
  ($Lmd $H 0)         // 1
  ($Lmd $Ltot 0)      // 2
  ($Lmg $Ltot 0)      // 3
  ($Lmg $H 0.1)         // 4
  ($Lmd $H 0.1)         // 5
  ($Lmd $Ltot 0.1)      // 6
  ($Lmg $Ltot 0.1)      // 7
  (0 0 0)             // 8
  ($Lmg $Hmg 0)       // 9
  (0 $H 0)            // 10
  (0 0 0.1)             // 11
  ($Lmg $Hmg 0.1)       // 12
  (0 $H 0.1)            // 13
  ($Lmd $Hmd 0)       // 14
  ($Lmd $Hmd 0.1)       // 15
  ($L $Hnd 0)         // 16
  ($L $H 0)           // 17
  ($L $Hnd 0.1)         // 18
  ($L $H 0.1)           // 19
);

blocks
(
    // Injection
    hex (0 1 2 3 4 5 6 7) (20 20 1) simpleGrading (1 1 1)

    // Block gauche
    hex (8 9 0 10 11 12 4 13) (48 600 1) simpleGrading (0.0114 1 1)

    // Block central
    hex (9 14 1 0 12 15 5 4) (20 600 1) simpleGrading (1 1 1)

    // Block Droit
    hex (14 16 17 1 15 18 19 5) (48 600 1) simpleGrading (88 1 1)
);

edges
(
);

boundary
(
    up
    {
        type patch;
        faces
        (
            (3 7 6 2)
        );
    }
	right
	{
		type patch;
		faces
        (
		(16 18 19 17)
		);
	}
	left
	{
		type patch;
		faces
        (
		(10 13 11 8)
		);
	}
    fixedWalls
    {
        type wall;
        faces
        (
            (3 7 4 0)
            (0 4 13 10)
            (17 19 5 1)
            (1 5 6 2)
        );
    }
    bottom
    {
        type patch;
        faces
        (
            (8 11 12 9)
            (9 12 15 14)
            (14 15 18 16)
        );
    }
    frontAndBack
    {
        type empty;
        faces
        (
          // Front
            (0 1 2 3)
            (8 9 0 10)
            (9 14 1 0)
            (14 16 17 1)
          // Back
            (4 5 6 7)
            (11 12 4 13)
            (12 15 5 4)
            (15 18 19 5)
        );
    }
);
mergePatchPairs
(
);

// ************************************************************************* //
